total_member:            1
print_esmf:              .true.
RUN_CONTINUE:            .false.

start_year:              2024
start_month:             01
start_day:               01
start_hour:              00
start_minute:            0
start_second:            0
nhours_fcst:             24

dt_atmos:                120

cpl_slow:                120
cpl_fast:                120

ocean_model:             schism
ocean_datamode:          none
